/*--------------------------------*- C++ -*----------------------------------*\
| =========                 |                                                 |
| \\      /  F ield         | OpenFOAM: The Open Source CFD Toolbox           |
|  \\    /   O peration     | Version:  v2012                                 |
|   \\  /    A nd           | Website:  www.openfoam.com                      |
|    \\/     M anipulation  |                                                 |
\*---------------------------------------------------------------------------*/
FoamFile
{
    version     2.0;
    format      ascii;
    class       volScalarField;
    object      alphas;
}
// * * * * * * * * * * * * * * * * * * * * * * * * * * * * * * * * * * * * * //

dimensions      [0 0 0 0 0 0 0];

internalField   uniform 1;

boundaryField
{
	leftInletWall
    {
        //type            fixedValue;
        //value           uniform 1;
        type            zeroGradient;
    }

	rightWall
    {
        type            zeroGradient;
    }

	leftWall
    {
        type            zeroGradient;
    }

	lowerWall
    {
        type            zeroGradient;
    }

	atmosphere
    {
        type            zeroGradient;
    }

	sides
    {
        type            empty;
    }

    defaultFaces
    {
        type            empty;
    }
}


// ************************************************************************* //
